Version 4
SHEET 1 1416 680
WIRE -304 -448 -304 -480
WIRE -304 -192 -304 -368
WIRE -304 -176 -304 -192
WIRE -304 -176 -592 -176
WIRE -128 -176 -304 -176
WIRE 48 -176 -128 -176
WIRE 464 -176 48 -176
WIRE 736 -176 464 -176
WIRE -592 -160 -592 -176
WIRE -592 -160 -768 -160
WIRE 464 -80 464 -176
WIRE -128 -64 -128 -176
WIRE 48 -64 48 -176
WIRE -768 -48 -768 -160
WIRE -592 -48 -592 -160
WIRE 736 64 736 -176
WIRE 736 64 640 64
WIRE -592 112 -592 32
WIRE -528 112 -592 112
WIRE -160 112 -464 112
WIRE 48 112 48 16
WIRE 128 112 48 112
WIRE 464 112 464 0
WIRE 464 112 192 112
WIRE 544 112 464 112
WIRE 576 112 544 112
WIRE 48 144 48 112
WIRE 48 144 -48 144
WIRE -592 160 -592 112
WIRE 736 160 736 64
WIRE -160 192 -160 112
WIRE -128 192 -128 16
WIRE -128 192 -160 192
WIRE -112 192 -128 192
WIRE -1216 208 -1280 208
WIRE -1040 208 -1136 208
WIRE -768 208 -768 32
WIRE -768 208 -976 208
WIRE -656 208 -768 208
WIRE 640 208 640 160
WIRE 672 208 640 208
WIRE 80 240 -48 240
WIRE 80 272 80 240
WIRE 464 304 464 112
WIRE -592 320 -592 256
WIRE -416 320 -592 320
WIRE -416 336 -416 320
WIRE -128 352 -128 192
WIRE 736 352 736 256
WIRE 832 352 736 352
WIRE 976 352 896 352
WIRE -768 368 -768 208
WIRE -592 368 -592 320
WIRE 80 368 80 352
WIRE 80 368 48 368
WIRE -1280 384 -1280 208
WIRE 48 400 48 368
WIRE 112 400 48 400
WIRE 224 400 176 400
WIRE 976 416 976 352
WIRE 736 432 736 352
WIRE -128 464 -128 432
WIRE 48 464 48 400
WIRE -768 480 -768 448
WIRE -592 480 -592 448
WIRE -416 480 -416 400
WIRE -1280 544 -1280 464
WIRE 464 560 464 384
WIRE 736 560 736 512
WIRE 976 560 976 496
WIRE 48 576 48 544
WIRE 224 576 224 400
FLAG -1280 544 0
FLAG 464 560 0
FLAG 736 560 0
FLAG 976 560 0
FLAG 976 352 Vout
FLAG -768 480 0
FLAG -592 480 0
FLAG -416 480 0
FLAG -128 464 0
FLAG 48 576 0
FLAG 224 576 0
FLAG 544 112 Vin
FLAG -304 -192 Vcc
FLAG -304 -480 0
SYMBOL voltage -1280 368 R0
WINDOW 123 0 0 Left 2
WINDOW 39 0 0 Left 2
SYMATTR InstName Vs
SYMATTR Value SINE(0 10m 300)
SYMBOL voltage -304 -352 R180
WINDOW 0 24 96 Left 2
WINDOW 3 24 16 Left 2
SYMATTR InstName Vcc
SYMATTR Value 12
SYMBOL res -1120 192 R90
WINDOW 0 0 56 VBottom 2
WINDOW 3 32 56 VTop 2
SYMATTR InstName Rs
SYMATTR Value 75
SYMBOL cap -976 192 R90
WINDOW 0 0 32 VBottom 2
WINDOW 3 32 32 VTop 2
SYMATTR InstName C1
SYMATTR Value 200µ
SYMBOL res 448 -96 R0
SYMATTR InstName R3
SYMATTR Value 67500
SYMBOL res 448 288 R0
SYMATTR InstName R4
SYMATTR Value 135k
SYMBOL res 720 416 R0
SYMATTR InstName RE2
SYMATTR Value 16
SYMBOL npn 576 64 R0
SYMATTR InstName Q1
SYMATTR Value 2N3904
SYMBOL npn 672 160 R0
SYMATTR InstName Q2
SYMATTR Value 2N3904
SYMBOL cap 896 336 R90
WINDOW 0 0 32 VBottom 2
WINDOW 3 32 32 VTop 2
SYMATTR InstName C3
SYMATTR Value 500µ
SYMBOL res 960 400 R0
SYMATTR InstName RL
SYMATTR Value 16
SYMBOL npn -656 160 R0
SYMATTR InstName Q3
SYMATTR Value 2N3904
SYMBOL res -784 -64 R0
SYMATTR InstName R1
SYMATTR Value 7500
SYMBOL res -784 352 R0
SYMATTR InstName R2
SYMATTR Value 833
SYMBOL res -608 -64 R0
SYMATTR InstName RC1
SYMATTR Value 2.5k
SYMBOL res -608 352 R0
SYMATTR InstName RE1
SYMATTR Value 250
SYMBOL cap -464 96 R90
WINDOW 0 0 32 VBottom 2
WINDOW 3 32 32 VTop 2
SYMATTR InstName C2
SYMATTR Value 300µ
SYMBOL cap -400 400 R180
WINDOW 0 24 56 Left 2
WINDOW 3 24 8 Left 2
SYMATTR InstName CB
SYMATTR Value 300µ
SYMBOL npn -112 144 R0
SYMATTR InstName Q4
SYMATTR Value 2N3904
SYMBOL res -144 -80 R0
SYMATTR InstName R5
SYMATTR Value 7500
SYMBOL res -144 336 R0
SYMATTR InstName R6
SYMATTR Value 833
SYMBOL res 32 -80 R0
SYMATTR InstName RC2
SYMATTR Value 2500
SYMBOL res 32 448 R0
SYMATTR InstName RE3
SYMATTR Value 10
SYMBOL cap 192 96 R90
WINDOW 0 0 32 VBottom 2
WINDOW 3 32 32 VTop 2
SYMATTR InstName C4
SYMATTR Value 500µ
SYMBOL cap 112 416 R270
WINDOW 0 32 32 VTop 2
WINDOW 3 0 32 VBottom 2
SYMATTR InstName CB1
SYMATTR Value 100µ
SYMBOL res 64 256 R0
SYMATTR InstName R8
SYMATTR Value 240
TEXT -952 -432 Left 2 ;-Rs Resistor is the inline 75 Ohm source resistance
TEXT -952 -368 Left 2 ;-2N3904; Beta=300 ea
TEXT 760 88 Left 2 ;-Combined Beta=90k
TEXT -744 -496 Left 2 ;NOTES
TEXT -952 600 Left 2 !.tran 0 15M 0 10
TEXT -952 -400 Left 2 ;-RL is the speaker
